8
0 1
   Al         0.00000000      0.00000000     -1.59543900
   Al         0.00000000      0.00000000      1.59543900
   Cl         0.00000000      1.62307900      0.00000000
   Cl         0.00000000     -1.62307900      0.00000000
   Cl         1.82122800      0.00000000     -2.60429400
   Cl        -1.82122800      0.00000000     -2.60429400
   Cl        -1.82122800      0.00000000      2.60429400
   Cl         1.82122800      0.00000000      2.60429400
