9
0 1
O         -2.235437230087    0.143124292817    0.279182781720
H         -2.652114069471    0.941997007504    0.604952458971
H         -1.306410910992    0.253881357629    0.520131274942
O          0.606525854540    0.239596225744    0.665558031726
H          0.974508678778   -0.332481177259    1.343086358835
C          1.071530925880   -0.232033690184   -0.596601078094
H          0.640713830642    0.419060000765   -1.349715110074
H          2.157494612880   -0.181240829481   -0.670913006230
H          0.743188307883   -1.251903187533   -0.795681711954
