8
0 1
C          0.509494177552   -0.255996507719    0.108915681766
O          1.704986851318   -0.092045761650    0.185431458514
O         -0.070007494351   -1.467401468850    0.308354038388
H          0.664443363562   -2.068509962750    0.501392153355
C         -0.512390050461    0.787935009271   -0.211765498450
H         -0.034095630756    1.758881361430   -0.258588269289
H         -0.965190152342    0.554738820920   -1.174473545648
H         -1.297241064576    0.782398509243    0.540733981417
